  0
SECTION
  2
ENTITIES
999
DXF created from EnergyPlus
999
Program Version,EnergyPlus, Version 9.6.0-316f894e91 (No OpenGL) (No OpenGL) (No OpenGL), YMD=2023.08.18 15:38
999
Polygon Action,ThickPolyline
999
Color Scheme,Default
999
Text - True North
  0
TEXT
  8
1
  6
Continuous
 62
  3
 10
      -11.00000
 20
        3.00000
 30
        0.10000
 40
 .25
  1
True North
 41
 0.0
  7
MONOTXT
210
0.0
220
0.0
230
1.0
999
Text - Building Title
  0
TEXT
  8
1
  6
Continuous
 62
  3
 10
      -14.00000
 20
       -1.00000
 30
        0.10000
 40
 .4
  1
Building - Single family House
 41
 0.0
  7
MONOTXT
210
0.0
220
0.0
230
1.0
999
North Arrow Stem
  0
3DFACE
  8
1
 62
  3
 10
      -10.00000
 20
        3.00000
 30
        0.10000
 11
      -10.00000
 21
        3.00000
 31
        0.00000
 12
      -10.00000
 22
        0.00000
 32
        0.00000
 13
      -10.00000
 23
        0.00000
 33
        0.10000
999
North Arrow Head 1
  0
3DFACE
  8
1
 62
  3
 10
      -10.00000
 20
        3.00000
 30
        0.10000
 11
      -10.00000
 21
        3.00000
 31
        0.00000
 12
      -10.50000
 22
        2.13397
 32
        0.00000
 13
      -10.50000
 23
        2.13397
 33
        0.10000
999
North Arrow Head 2
  0
3DFACE
  8
1
 62
  3
 10
      -10.00000
 20
        3.00000
 30
        0.10000
 11
      -10.00000
 21
        3.00000
 31
        0.00000
 12
       -9.50000
 22
        2.13397
 32
        0.00000
 13
       -9.50000
 23
        2.13397
 33
        0.10000
999
North Arrow Side 1
  0
3DFACE
  8
1
 62
  3
 10
      -10.50000
 20
        4.50000
 30
        0.10000
 11
      -10.50000
 21
        4.50000
 31
        0.00000
 12
      -10.50000
 22
        3.50000
 32
        0.00000
 13
      -10.50000
 23
        3.50000
 33
        0.10000
999
North Arrow Side 2
  0
3DFACE
  8
1
 62
  3
 10
      -10.50000
 20
        4.50000
 30
        0.10000
 11
      -10.50000
 21
        4.50000
 31
        0.00000
 12
       -9.50000
 22
        3.50000
 32
        0.00000
 13
       -9.50000
 23
        3.50000
 33
        0.10000
999
North Arrow Side 3
  0
3DFACE
  8
1
 62
  3
 10
       -9.50000
 20
        4.50000
 30
        0.10000
 11
       -9.50000
 21
        4.50000
 31
        0.00000
 12
       -9.50000
 22
        3.50000
 32
        0.00000
 13
       -9.50000
 23
        3.50000
 33
        0.10000
999
Zone Names
999
Zone=1:ATTIC_ZONE
999
Zone=2:GARAGE_ZONE
999
Zone=3:LIVING_ZONE
999
ATTIC ZONE:ATTIC:NORTHGABLE
  0
3DFACE
  8
ATTIC_ZONE
 62
 43
 10
       13.78200
 20
       16.87600
 30
        3.88040
 11
       17.24200
 21
       16.87600
 31
        2.43840
 12
       10.32300
 22
       16.87600
 32
        2.43840
 13
       10.32300
 23
       16.87600
 33
        2.43840
999
ATTIC ZONE:EASTGABLE
  0
3DFACE
  8
ATTIC_ZONE
 62
 43
 10
       17.24200
 20
        5.38900
 30
        4.68380
 11
       17.24200
 21
        0.00000
 31
        2.43840
 12
       17.24200
 22
       10.77800
 32
        2.43840
 13
       17.24200
 23
       10.77800
 33
        2.43840
999
ATTIC ZONE:WESTGABLE
  0
3DFACE
  8
ATTIC_ZONE
 62
 43
 10
        0.00000
 20
        5.38900
 30
        4.68380
 11
        0.00000
 21
       10.77800
 31
        2.43840
 12
        0.00000
 22
        0.00000
 32
        2.43840
 13
        0.00000
 23
        0.00000
 33
        2.43840
999
ATTIC ZONE:ATTIC:GARAGEFLOOR
  0
3DFACE
  8
ATTIC_ZONE
 62
  8
 10
       10.32300
 20
       10.77800
 30
        2.43840
 11
       10.32300
 21
       16.87600
 31
        2.43840
 12
       17.24200
 22
       16.87600
 32
        2.43840
 13
       17.24200
 23
       10.77800
 33
        2.43840
999
ATTIC ZONE:ATTIC:LIVINGFLOOR
  0
3DFACE
  8
ATTIC_ZONE
 62
  8
 10
        0.00000
 20
        0.00000
 30
        2.43840
 11
        0.00000
 21
       10.77800
 31
        2.43840
 12
       17.24200
 22
       10.77800
 32
        2.43840
 13
       17.24200
 23
        0.00000
 33
        2.43840
999
ATTIC ZONE:EASTROOF
  0
3DFACE
  8
ATTIC_ZONE
 62
 15
 10
       13.78200
 20
       16.87600
 30
        3.88040
 11
       13.78200
 21
        7.31720
 31
        3.88040
 12
       17.24200
 22
       10.77800
 32
        2.43840
 13
       17.24200
 23
       16.87600
 33
        2.43840
999
ATTIC ZONE:NORTHROOF1
  0
3DFACE
  8
ATTIC_ZONE
 62
 15
 10
       13.78200
 20
        5.38900
 30
        4.68380
 11
       13.78200
 21
        7.31720
 31
        3.88040
 12
        0.00000
 22
        7.31720
 32
        3.88040
 13
        0.00000
 23
        5.38900
 33
        4.68380
999
ATTIC ZONE:NORTHROOF2
  0
3DFACE
  8
ATTIC_ZONE
 62
 15
 10
       13.78200
 20
        7.31720
 30
        3.88040
 11
       10.33200
 21
       10.77800
 31
        2.43840
 12
        0.00000
 22
       10.77800
 32
        2.43840
 13
        0.00000
 23
        7.31720
 33
        3.88040
999
ATTIC ZONE:NORTHROOF3
  0
3DFACE
  8
ATTIC_ZONE
 62
 15
 10
       17.24200
 20
        5.38900
 30
        4.68380
 11
       17.24200
 21
        7.31720
 31
        3.88040
 12
       13.78200
 22
        7.31720
 32
        3.88040
 13
       13.78200
 23
        5.38900
 33
        4.68380
999
ATTIC ZONE:NORTHROOF4
  0
3DFACE
  8
ATTIC_ZONE
 62
 15
 10
       17.24200
 20
        7.31720
 30
        3.88040
 11
       17.24200
 21
       10.77800
 31
        2.43840
 12
       13.78200
 22
        7.31720
 32
        3.88040
 13
       13.78200
 23
        7.31720
 33
        3.88040
999
ATTIC ZONE:SOUTHROOF
  0
3DFACE
  8
ATTIC_ZONE
 62
 15
 10
        0.00000
 20
        5.38900
 30
        4.68380
 11
        0.00000
 21
        0.00000
 31
        2.43840
 12
       17.24200
 22
        0.00000
 32
        2.43840
 13
       17.24200
 23
        5.38900
 33
        4.68380
999
ATTIC ZONE:WESTROOF
  0
3DFACE
  8
ATTIC_ZONE
 62
 15
 10
       10.32300
 20
       16.87600
 30
        2.43840
 11
       10.32300
 21
       10.77800
 31
        2.43840
 12
       13.78200
 22
        7.31720
 32
        3.88040
 13
       13.78200
 23
       16.87600
 33
        3.88040
999
GARAGE ZONE:GARAGE:EASTWALL
  0
3DFACE
  8
GARAGE_ZONE
 62
 43
 10
       17.24200
 20
       10.77800
 30
        2.43840
 11
       17.24200
 21
       10.77800
 31
        0.00000
 12
       17.24200
 22
       16.87600
 32
        0.00000
 13
       17.24200
 23
       16.87600
 33
        2.43840
999
GARAGE ZONE:GARAGE:FRONTDOOR
  0
3DFACE
  8
GARAGE_ZONE
 62
 43
 10
       17.24200
 20
       16.87600
 30
        2.43840
 11
       17.24200
 21
       16.87600
 31
        0.00000
 12
       10.32300
 22
       16.87600
 32
        0.00000
 13
       10.32300
 23
       16.87600
 33
        2.43840
999
GARAGE ZONE:GARAGE:INTERIOR
  0
3DFACE
  8
GARAGE_ZONE
 62
 43
 10
       10.32300
 20
       10.77800
 30
        2.43840
 11
       10.32300
 21
       10.77800
 31
        0.00000
 12
       17.24200
 22
       10.77800
 32
        0.00000
 13
       17.24200
 23
       10.77800
 33
        2.43840
999
GARAGE ZONE:GARAGE:WESTWALL
  0
3DFACE
  8
GARAGE_ZONE
 62
 43
 10
       10.32300
 20
       16.87600
 30
        2.43840
 11
       10.32300
 21
       16.87600
 31
        0.00000
 12
       10.32300
 22
       10.77800
 32
        0.00000
 13
       10.32300
 23
       10.77800
 33
        2.43840
999
GARAGE ZONE:GARAGE:FLOOR
  0
3DFACE
  8
GARAGE_ZONE
 62
  8
 10
       10.32300
 20
       10.77800
 30
        0.00000
 11
       10.32300
 21
       16.87600
 31
        0.00000
 12
       17.24200
 22
       16.87600
 32
        0.00000
 13
       17.24200
 23
       10.77800
 33
        0.00000
999
GARAGE ZONE:GARAGE:CEILING
  0
3DFACE
  8
GARAGE_ZONE
 62
 15
 10
       10.32300
 20
       16.87600
 30
        2.43840
 11
       10.32300
 21
       10.77800
 31
        2.43840
 12
       17.24200
 22
       10.77800
 32
        2.43840
 13
       17.24200
 23
       16.87600
 33
        2.43840
999
LIVING ZONE:LIVING:EAST
  0
3DFACE
  8
LIVING_ZONE
 62
 43
 10
       17.24200
 20
        0.00000
 30
        2.43840
 11
       17.24200
 21
        0.00000
 31
        0.00000
 12
       17.24200
 22
       10.77800
 32
        0.00000
 13
       17.24200
 23
       10.77800
 33
        2.43840
999
LIVING ZONE:EASTWINDOW
  0
3DFACE
  8
LIVING_ZONE
 62
143
 10
       17.24200
 20
        2.00000
 30
        2.13360
 11
       17.24200
 21
        2.00000
 31
        0.60960
 12
       17.24200
 22
        6.57200
 32
        0.60960
 13
       17.24200
 23
        6.57200
 33
        2.13360
999
LIVING ZONE:LIVING:INTERIOR
  0
3DFACE
  8
LIVING_ZONE
 62
 43
 10
       17.24200
 20
       10.77800
 30
        2.43840
 11
       17.24200
 21
       10.77800
 31
        0.00000
 12
       10.32300
 22
       10.77800
 32
        0.00000
 13
       10.32300
 23
       10.77800
 33
        2.43840
999
LIVING ZONE:LIVING:NORTH
  0
3DFACE
  8
LIVING_ZONE
 62
 43
 10
       10.32300
 20
       10.77800
 30
        2.43840
 11
       10.32300
 21
       10.77800
 31
        0.00000
 12
        0.00000
 22
       10.77800
 32
        0.00000
 13
        0.00000
 23
       10.77800
 33
        2.43840
999
LIVING ZONE:NORTHWINDOW
  0
3DFACE
  8
LIVING_ZONE
 62
143
 10
        6.57200
 20
       10.77800
 30
        2.13360
 11
        6.57200
 21
       10.77800
 31
        0.60960
 12
        2.00000
 22
       10.77800
 32
        0.60960
 13
        2.00000
 23
       10.77800
 33
        2.13360
999
LIVING ZONE:LIVING:SOUTH
  0
3DFACE
  8
LIVING_ZONE
 62
 43
 10
        0.00000
 20
        0.00000
 30
        2.43830
 11
        0.00000
 21
        0.00000
 31
        0.00000
 12
       17.24200
 22
        0.00000
 32
        0.00000
 13
       17.24200
 23
        0.00000
 33
        2.43840
999
LIVING ZONE:SOUTHWINDOW
  0
3DFACE
  8
LIVING_ZONE
 62
143
 10
        2.00000
 20
        0.00000
 30
        2.13360
 11
        2.00000
 21
        0.00000
 31
        0.60960
 12
        6.57200
 22
        0.00000
 32
        0.60960
 13
        6.57200
 23
        0.00000
 33
        2.13360
999
LIVING ZONE:LIVING:WEST
  0
3DFACE
  8
LIVING_ZONE
 62
 43
 10
        0.00000
 20
       10.77800
 30
        2.43840
 11
        0.00000
 21
       10.77800
 31
        0.00000
 12
        0.00000
 22
        0.00000
 32
        0.00000
 13
        0.00000
 23
        0.00000
 33
        2.43840
999
LIVING ZONE:WESTWINDOW
  0
3DFACE
  8
LIVING_ZONE
 62
143
 10
        0.00000
 20
        6.57200
 30
        2.13360
 11
        0.00000
 21
        6.57200
 31
        0.60960
 12
        0.00000
 22
        2.00000
 32
        0.60960
 13
        0.00000
 23
        2.00000
 33
        2.13360
999
LIVING ZONE:LIVING:FLOOR
  0
3DFACE
  8
LIVING_ZONE
 62
  8
 10
        0.00000
 20
        0.00000
 30
        0.00000
 11
        0.00000
 21
       10.77800
 31
        0.00000
 12
       17.24200
 22
       10.77800
 32
        0.00000
 13
       17.24200
 23
        0.00000
 33
        0.00000
999
LIVING ZONE:LIVING:CEILING
  0
3DFACE
  8
LIVING_ZONE
 62
 15
 10
        0.00000
 20
       10.77800
 30
        2.43840
 11
        0.00000
 21
        0.00000
 31
        2.43840
 12
       17.24200
 22
        0.00000
 32
        2.43840
 13
       17.24200
 23
       10.77800
 33
        2.43840
  0
ENDSEC
  0
EOF
